LTspice 24.0.12 for Windows
Circuit: * D:\Mathias Lampert\Documents\Mathias Schule_Studium\FH\ELITE-Semester\EIT_2\Labor2\Messprojekt1\Messprojekt.asc
Start Time: Mon May  5 15:19:06 2025
solver = Normal
Maximum thread count: 6



Direct Newton iteration for .op point succeeded.
.step v_sw_infineon=5 v_sw_vishay=100 v_sw_nexperia=10



.step v_sw_infineon=8 v_sw_vishay=100 v_sw_nexperia=10



.step v_sw_infineon=11 v_sw_vishay=100 v_sw_nexperia=10



.step v_sw_infineon=5 v_sw_vishay=250 v_sw_nexperia=10



.step v_sw_infineon=8 v_sw_vishay=250 v_sw_nexperia=10



.step v_sw_infineon=11 v_sw_vishay=250 v_sw_nexperia=10



.step v_sw_infineon=5 v_sw_vishay=400 v_sw_nexperia=10



.step v_sw_infineon=8 v_sw_vishay=400 v_sw_nexperia=10



.step v_sw_infineon=11 v_sw_vishay=400 v_sw_nexperia=10



.step v_sw_infineon=5 v_sw_vishay=100 v_sw_nexperia=20



.step v_sw_infineon=8 v_sw_vishay=100 v_sw_nexperia=20



.step v_sw_infineon=11 v_sw_vishay=100 v_sw_nexperia=20



.step v_sw_infineon=5 v_sw_vishay=250 v_sw_nexperia=20



.step v_sw_infineon=8 v_sw_vishay=250 v_sw_nexperia=20



.step v_sw_infineon=11 v_sw_vishay=250 v_sw_nexperia=20



.step v_sw_infineon=5 v_sw_vishay=400 v_sw_nexperia=20



.step v_sw_infineon=8 v_sw_vishay=400 v_sw_nexperia=20



.step v_sw_infineon=11 v_sw_vishay=400 v_sw_nexperia=20



.step v_sw_infineon=5 v_sw_vishay=100 v_sw_nexperia=40



.step v_sw_infineon=8 v_sw_vishay=100 v_sw_nexperia=40



.step v_sw_infineon=11 v_sw_vishay=100 v_sw_nexperia=40



.step v_sw_infineon=5 v_sw_vishay=250 v_sw_nexperia=40



.step v_sw_infineon=8 v_sw_vishay=250 v_sw_nexperia=40



.step v_sw_infineon=11 v_sw_vishay=250 v_sw_nexperia=40



.step v_sw_infineon=5 v_sw_vishay=400 v_sw_nexperia=40



.step v_sw_infineon=8 v_sw_vishay=400 v_sw_nexperia=40
tnom = 27
temp = 27
method = modified trap
.step v_sw_infineon=11 v_sw_vishay=400 v_sw_nexperia=40


Measurement: psw_m1
  step	AVG(v(n002)*id(m1))	FROM	TO
     1	0.206571	0	0.003
     2	0.785722	0	0.003
     3	1.19868	0	0.003
     4	0.199653	0	0.003
     5	0.540877	0	0.003
     6	1.12055	0	0.003
     7	0.207405	0	0.003
     8	0.546063	0	0.003
     9	1.06838	0	0.003
    10	0.202722	0	0.003
    11	0.552224	0	0.003
    12	1.06114	0	0.003
    13	0.206249	0	0.003
    14	0.55106	0	0.003
    15	1.22646	0	0.003
    16	0.226519	0	0.003
    17	0.5747	0	0.003
    18	1.02688	0	0.003
    19	0.209154	0	0.003
    20	0.54744	0	0.003
    21	1.07018	0	0.003
    22	0.213083	0	0.003
    23	0.563345	0	0.003
    24	1.09197	0	0.003
    25	0.218447	0	0.003
    26	0.526057	0	0.003
    27	1.02533	0	0.003

Measurement: psw_m2
  step	AVG(v(n004)*id(m2))	FROM	TO
     1	5.00335	0	0.003
     2	5.00189	0	0.003
     3	5.00364	0	0.003
     4	33.4245	0	0.003
     5	33.4628	0	0.003
     6	33.5426	0	0.003
     7	90.7001	0	0.003
     8	90.8744	0	0.003
     9	90.7465	0	0.003
    10	4.99843	0	0.003
    11	4.99882	0	0.003
    12	4.99957	0	0.003
    13	33.3767	0	0.003
    14	33.4523	0	0.003
    15	33.4907	0	0.003
    16	90.3213	0	0.003
    17	90.5909	0	0.003
    18	90.7212	0	0.003
    19	4.99899	0	0.003
    20	5.00467	0	0.003
    21	4.99976	0	0.003
    22	33.3665	0	0.003
    23	33.4688	0	0.003
    24	33.4703	0	0.003
    25	90.522	0	0.003
    26	90.5778	0	0.003
    27	90.3904	0	0.003

Measurement: psw_m3
  step	AVG(v(n006)*id(m3))	FROM	TO
     1	2.3184	0	0.003
     2	2.31817	0	0.003
     3	2.31834	0	0.003
     4	2.31839	0	0.003
     5	2.31832	0	0.003
     6	2.31841	0	0.003
     7	2.3185	0	0.003
     8	2.31845	0	0.003
     9	2.31844	0	0.003
    10	9.27995	0	0.003
    11	9.27908	0	0.003
    12	9.28031	0	0.003
    13	9.27996	0	0.003
    14	9.28046	0	0.003
    15	9.27915	0	0.003
    16	9.28043	0	0.003
    17	9.28017	0	0.003
    18	9.28069	0	0.003
    19	37.1793	0	0.003
    20	37.1824	0	0.003
    21	37.1795	0	0.003
    22	37.1796	0	0.003
    23	37.1792	0	0.003
    24	37.1783	0	0.003
    25	37.1807	0	0.003
    26	37.1814	0	0.003
    27	37.1829	0	0.003

Measurement: vds_m1
  step	v_sw_infineon
     1	5
     2	8
     3	11
     4	5
     5	8
     6	11
     7	5
     8	8
     9	11
    10	5
    11	8
    12	11
    13	5
    14	8
    15	11
    16	5
    17	8
    18	11
    19	5
    20	8
    21	11
    22	5
    23	8
    24	11
    25	5
    26	8
    27	11

Measurement: vds_m2
  step	v_sw_vishay
     1	100
     2	100
     3	100
     4	250
     5	250
     6	250
     7	400
     8	400
     9	400
    10	100
    11	100
    12	100
    13	250
    14	250
    15	250
    16	400
    17	400
    18	400
    19	100
    20	100
    21	100
    22	250
    23	250
    24	250
    25	400
    26	400
    27	400

Measurement: vds_m3
  step	v_sw_nexperia
     1	10
     2	10
     3	10
     4	10
     5	10
     6	10
     7	10
     8	10
     9	10
    10	20
    11	20
    12	20
    13	20
    14	20
    15	20
    16	20
    17	20
    18	20
    19	40
    20	40
    21	40
    22	40
    23	40
    24	40
    25	40
    26	40
    27	40

Total elapsed time: 2.744 seconds.

