LTspice 24.0.12 for Windows
Circuit: * D:\Mathias Lampert\Documents\Mathias Schule_Studium\FH\EIT_1\Labor ET\Labor_Messprojekt\Draft1.asc
Start Time: Mon Mar 31 10:43:43 2025
solver = Normal
Maximum thread count: 6
tnom = 27
temp = 27
method = modified trap
.OP point found by inspection.
Total elapsed time: 0.430 seconds.

