LTspice 24.0.12 for Windows
Circuit: * D:\Mathias Lampert\Documents\Mathias Schule_Studium\FH\EIT_1\Labor ET\Labor_Messprojekt\Erste Skizzen_Überlegungen.asc
Start Time: Thu Dec 19 11:21:06 2024
r4: both pins shorted together -- ignoring.
Number of points per decade reduced from 2147483648 to 20652.
Error on line 5 : c4 n004 n006 c
	 Unable to find definition of model "c"
Error on line 10 : v2 nc_01 nc_02 v
	 Unknown parameter "v"
solver = Normal
Maximum thread count: 6
tnom = 27
temp = 27
method = modified trap
WARNING: Node N001 is floating.
WARNING: Node N005 is floating.
WARNING: Node N007 is floating.
WARNING: Node N003 is floating.
WARNING: Node N006 is floating.
WARNING: Node N009 is floating.
WARNING: Node N011 is floating.
WARNING: Node N013 is floating.
WARNING: Node NC_02 is floating.

WARNING: Less than two connections to node n002.  This node is used by r1.
WARNING: Less than two connections to node n001.  This node is used by r1.
WARNING: Less than two connections to node n005.  This node is used by c1.
WARNING: Less than two connections to node n007.  This node is used by c1.
WARNING: Less than two connections to node n003.  This node is used by r3.
WARNING: Less than two connections to node n006.  This node is used by c4.
WARNING: Less than two connections to node n010.  This node is used by r2.
WARNING: Less than two connections to node n009.  This node is used by r2.
WARNING: Less than two connections to node n011.  This node is used by c2.
WARNING: Less than two connections to node n013.  This node is used by c2.
WARNING: Less than two connections to node nc_01.  This node is used by v2.
WARNING: Less than two connections to node nc_02.  This node is used by v2.
Fatal Error: Missing capacitance value for "c4"
